Circuit: *** SPICE deck for cell PrefixAdderBased32bitComparatorNEW{lay} from library IC_PROJECT_FINAL_VERSION

WARNING: Less than two connections to node PGNEW@3:NAND@3:NET@21.  This node is used by M:PGNEW@3:NAND@3:PMOS@1.
WARNING: Less than two connections to node PGNEW@4:NAND@3:NET@21.  This node is used by M:PGNEW@4:NAND@3:PMOS@1.
WARNING: Less than two connections to node PGNEW@5:NAND@3:NET@21.  This node is used by M:PGNEW@5:NAND@3:PMOS@1.
WARNING: Less than two connections to node PGNEW@6:NAND@3:NET@21.  This node is used by M:PGNEW@6:NAND@3:PMOS@1.
WARNING: Less than two connections to node PGNEW@7:NAND@3:NET@21.  This node is used by M:PGNEW@7:NAND@3:PMOS@1.
WARNING: Less than two connections to node PGNEW@8:NAND@3:NET@21.  This node is used by M:PGNEW@8:NAND@3:PMOS@1.
WARNING: Less than two connections to node PGNEW@9:NAND@3:NET@21.  This node is used by M:PGNEW@9:NAND@3:PMOS@1.
WARNING: Less than two connections to node PGNEW@10:NAND@3:NET@21.  This node is used by M:PGNEW@10:NAND@3:PMOS@1.
WARNING: Less than two connections to node PGNEW@11:NAND@3:NET@21.  This node is used by M:PGNEW@11:NAND@3:PMOS@1.
WARNING: Less than two connections to node PGNEW@12:NAND@3:NET@21.  This node is used by M:PGNEW@12:NAND@3:PMOS@1.
WARNING: Less than two connections to node PGNEW@13:NAND@3:NET@21.  This node is used by M:PGNEW@13:NAND@3:PMOS@1.
WARNING: Less than two connections to node PGNEW@14:NAND@3:NET@21.  This node is used by M:PGNEW@14:NAND@3:PMOS@1.
WARNING: Less than two connections to node PGNEW@15:NAND@3:NET@21.  This node is used by M:PGNEW@15:NAND@3:PMOS@1.
WARNING: Less than two connections to node PGNEW@16:NAND@3:NET@21.  This node is used by M:PGNEW@16:NAND@3:PMOS@1.
WARNING: Less than two connections to node PGNEW@31:NAND@3:NET@21.  This node is used by M:PGNEW@31:NAND@3:PMOS@1.
WARNING: Less than two connections to node PGNEW@33:NAND@3:NET@21.  This node is used by M:PGNEW@33:NAND@3:PMOS@1.
WARNING: Less than two connections to node PGNEW@34:NAND@3:NET@21.  This node is used by M:PGNEW@34:NAND@3:PMOS@1.
WARNING: Less than two connections to node PGNEW@35:NAND@3:NET@21.  This node is used by M:PGNEW@35:NAND@3:PMOS@1.
WARNING: Less than two connections to node PGNEW@36:NAND@3:NET@21.  This node is used by M:PGNEW@36:NAND@3:PMOS@1.
WARNING: Less than two connections to node PGNEW@37:NAND@3:NET@21.  This node is used by M:PGNEW@37:NAND@3:PMOS@1.
WARNING: Less than two connections to node PGNEW@38:NAND@3:NET@21.  This node is used by M:PGNEW@38:NAND@3:PMOS@1.
WARNING: Less than two connections to node PGNEW@39:NAND@3:NET@21.  This node is used by M:PGNEW@39:NAND@3:PMOS@1.
WARNING: Less than two connections to node PGNEW@40:NAND@3:NET@21.  This node is used by M:PGNEW@40:NAND@3:PMOS@1.
WARNING: Less than two connections to node PGNEW@41:NAND@3:NET@21.  This node is used by M:PGNEW@41:NAND@3:PMOS@1.
WARNING: Less than two connections to node PGNEW@42:NAND@3:NET@21.  This node is used by M:PGNEW@42:NAND@3:PMOS@1.
WARNING: Less than two connections to node PGNEW@43:NAND@3:NET@21.  This node is used by M:PGNEW@43:NAND@3:PMOS@1.
WARNING: Less than two connections to node PGNEW@44:NAND@3:NET@21.  This node is used by M:PGNEW@44:NAND@3:PMOS@1.
WARNING: Less than two connections to node PGNEW@45:NAND@3:NET@21.  This node is used by M:PGNEW@45:NAND@3:PMOS@1.
WARNING: Less than two connections to node PGNEW@46:NAND@3:NET@21.  This node is used by M:PGNEW@46:NAND@3:PMOS@1.
WARNING: Less than two connections to node PGNEW@47:NAND@3:NET@21.  This node is used by M:PGNEW@47:NAND@3:PMOS@1.
WARNING: Less than two connections to node PGNEW@48:NAND@3:NET@21.  This node is used by M:PGNEW@48:NAND@3:PMOS@1.
WARNING: Less than two connections to node PREIFX_A@7:NAND@3:NET@21.  This node is used by M:PREIFX_A@7:NAND@3:PMOS@1.
WARNING: Less than two connections to node PREIFX_A@8:NAND@3:NET@21.  This node is used by M:PREIFX_A@8:NAND@3:PMOS@1.
WARNING: Less than two connections to node PREIFX_A@9:NAND@3:NET@21.  This node is used by M:PREIFX_A@9:NAND@3:PMOS@1.
WARNING: Less than two connections to node PREIFX_A@10:NAND@3:NET@21.  This node is used by M:PREIFX_A@10:NAND@3:PMOS@1.
WARNING: Less than two connections to node PREIFX_A@11:NAND@3:NET@21.  This node is used by M:PREIFX_A@11:NAND@3:PMOS@1.
WARNING: Less than two connections to node PREIFX_A@12:NAND@3:NET@21.  This node is used by M:PREIFX_A@12:NAND@3:PMOS@1.
WARNING: Less than two connections to node PREIFX_A@13:NAND@3:NET@21.  This node is used by M:PREIFX_A@13:NAND@3:PMOS@1.
WARNING: Less than two connections to node PREIFX_A@14:NAND@3:NET@21.  This node is used by M:PREIFX_A@14:NAND@3:PMOS@1.
WARNING: Less than two connections to node PREIFX_A@15:NAND@3:NET@21.  This node is used by M:PREIFX_A@15:NAND@3:PMOS@1.
WARNING: Less than two connections to node PREIFX_A@16:NAND@3:NET@21.  This node is used by M:PREIFX_A@16:NAND@3:PMOS@1.
WARNING: Less than two connections to node PREIFX_A@17:NAND@3:NET@21.  This node is used by M:PREIFX_A@17:NAND@3:PMOS@1.
WARNING: Less than two connections to node PREIFX_A@18:NAND@3:NET@21.  This node is used by M:PREIFX_A@18:NAND@3:PMOS@1.
WARNING: Less than two connections to node PREIFX_A@19:NAND@3:NET@21.  This node is used by M:PREIFX_A@19:NAND@3:PMOS@1.
WARNING: Less than two connections to node PREIFX_A@20:NAND@3:NET@21.  This node is used by M:PREIFX_A@20:NAND@3:PMOS@1.
WARNING: Less than two connections to node PREIFX_A@21:NAND@3:NET@21.  This node is used by M:PREIFX_A@21:NAND@3:PMOS@1.
WARNING: Less than two connections to node PREIFX_A@22:NAND@3:NET@21.  This node is used by M:PREIFX_A@22:NAND@3:PMOS@1.
WARNING: Less than two connections to node PREIFX_A@39:NAND@3:NET@21.  This node is used by M:PREIFX_A@39:NAND@3:PMOS@1.
WARNING: Less than two connections to node PREIFX_A@40:NAND@3:NET@21.  This node is used by M:PREIFX_A@40:NAND@3:PMOS@1.
WARNING: Less than two connections to node PREIFX_A@41:NAND@3:NET@21.  This node is used by M:PREIFX_A@41:NAND@3:PMOS@1.
WARNING: Less than two connections to node PREIFX_A@42:NAND@3:NET@21.  This node is used by M:PREIFX_A@42:NAND@3:PMOS@1.
WARNING: Less than two connections to node PREIFX_A@43:NAND@3:NET@21.  This node is used by M:PREIFX_A@43:NAND@3:PMOS@1.
WARNING: Less than two connections to node PREIFX_A@44:NAND@3:NET@21.  This node is used by M:PREIFX_A@44:NAND@3:PMOS@1.
WARNING: Less than two connections to node PREIFX_A@45:NAND@3:NET@21.  This node is used by M:PREIFX_A@45:NAND@3:PMOS@1.
WARNING: Less than two connections to node PREIFX_A@46:NAND@3:NET@21.  This node is used by M:PREIFX_A@46:NAND@3:PMOS@1.
WARNING: Less than two connections to node PREIFX_A@47:NAND@3:NET@21.  This node is used by M:PREIFX_A@47:NAND@3:PMOS@1.
WARNING: Less than two connections to node PREIFX_A@48:NAND@3:NET@21.  This node is used by M:PREIFX_A@48:NAND@3:PMOS@1.
WARNING: Less than two connections to node PREIFX_A@49:NAND@3:NET@21.  This node is used by M:PREIFX_A@49:NAND@3:PMOS@1.
WARNING: Less than two connections to node PREIFX_A@50:NAND@3:NET@21.  This node is used by M:PREIFX_A@50:NAND@3:PMOS@1.
WARNING: Less than two connections to node PREIFX_A@51:NAND@3:NET@21.  This node is used by M:PREIFX_A@51:NAND@3:PMOS@1.
WARNING: Less than two connections to node PREIFX_A@52:NAND@3:NET@21.  This node is used by M:PREIFX_A@52:NAND@3:PMOS@1.
WARNING: Less than two connections to node PREIFX_A@53:NAND@3:NET@21.  This node is used by M:PREIFX_A@53:NAND@3:PMOS@1.
WARNING: Less than two connections to node PREIFX_A@54:NAND@3:NET@21.  This node is used by M:PREIFX_A@54:NAND@3:PMOS@1.
Warning: toxe, toxp and dtox all given and toxe != toxp + dtox; dtox ignored.
Direct Newton iteration failed to find .op point.  (Use ".option noopiter" to skip.)
Starting Gmin stepping
Gmin = 10
Gmin = 1.07374
Gmin = 0.115292
Gmin = 0.0123794
Gmin = 0.00132923
Gmin = 0.000142725
Gmin = 1.5325e-005
Gmin = 1.6455e-006
Gmin = 1.76685e-007
Gmin = 1.89714e-008
Gmin = 2.03704e-009
Gmin = 2.18725e-010
vernier = 0.5
Gmin = 6.2145e-011
vernier = 0.666667
vernier = 0.888888
Gmin = 1.1044e-011
vernier = 1
Gmin = 1.24035e-012
Gmin = 1.33182e-013
Gmin = 0
Gmin stepping succeeded in finding the operating point.


Date: Thu Aug 22 18:50:01 2024
Total elapsed time: 16.049 seconds.

tnom = 27
temp = 27
method = modified trap
totiter = 3708
traniter = 2776
tranpoints = 1165
accept = 1129
rejected = 36
matrix size = 4011
fillins = 1081
solver = Normal
Thread vector: 1975.2/410.2[12] 290.6/48.2[12] 133.9/30.4[12] 25.2/11.2[8]  2592/500
Matrix Compiler1: 630 KB object code size  281.5/115.4/[88.6]
Matrix Compiler2: 513 KB object code size  142.5/91.6/[62.5]


