Circuit: *** SPICE deck for cell preifx_AdderNEW{lay} from library IC_PROJECT_FINAL_VERSION

WARNING: Less than two connections to node NAND@3:NET@21.  This node is used by M:NAND@3:PMOS@1.
Warning: toxe, toxp and dtox all given and toxe != toxp + dtox; dtox ignored.
Direct Newton iteration for .op point succeeded.


Measurement "tf" FAIL'ed

Measurement "tr" FAIL'ed


Date: Thu Aug 22 18:44:23 2024
Total elapsed time: 0.178 seconds.

tnom = 27
temp = 27
method = modified trap
totiter = 2334
traniter = 2296
tranpoints = 1074
accept = 1069
rejected = 5
matrix size = 65
fillins = 0
solver = Normal
Matrix Compiler1: 7.25 KB object code size  1.2/0.6/[0.3]
Matrix Compiler2: off  [0.6]/0.8/0.6


