Circuit: *** SPICE deck for cell xor{lay} from library IC_PROJECT_FINAL_VERSION

WARNING: Node GI is floating.
WARNING: Node PI is floating.

WARNING: Less than two connections to node GI.  This node is used by CLOAD_GI.
WARNING: Less than two connections to node PI.  This node is used by CLOAD_PI.
Warning: toxe, toxp and dtox all given and toxe != toxp + dtox; dtox ignored.
Direct Newton iteration for .op point succeeded.


Measurement "tf" FAIL'ed
tr=5.30451e-008 FROM 4.69549e-008 TO 1e-007


Date: Thu Aug 22 18:38:44 2024
Total elapsed time: 0.111 seconds.

tnom = 27
temp = 27
method = modified trap
totiter = 2291
traniter = 2268
tranpoints = 1063
accept = 1063
rejected = 0
matrix size = 30
fillins = 0
solver = Normal
Matrix Compiler1: 2.18 KB object code size  0.5/0.2/[0.1]
Matrix Compiler2: 3.03 KB object code size  0.5/0.4/[0.3]


